@<TRIPOS>MOLECULE
*****
 10 9 0 0 0
SMALL
GASTEIGER

@<TRIPOS>ATOM
      1  N         -0.6770   -1.2300   -0.4910 N.3     2  ALA2       -0.2456
      2  CA        -0.0010    0.0640   -0.4910 C.3     2  ALA2        0.0849
      3  C          1.4990   -0.1100   -0.4910 C.2     2  ALA2        0.2174
      4  O          2.0300   -1.2270   -0.5020 O.2     2  ALA2       -0.2872
      5  CB        -0.5090    0.8560    0.7270 C.3     2  ALA2       -0.0411
      6  H         -0.1310   -2.1620   -0.4910 H       2  ALA2        0.1413
      7  HA        -0.2690    0.6030   -1.4180 H       2  ALA2        0.0554
      8 1HB        -1.6050    1.0060    0.6910 H       2  ALA2        0.0249
      9 2HB        -0.2850    0.3420    1.6810 H       2  ALA2        0.0249
     10 3HB        -0.0530    1.8610    0.7840 H       2  ALA2        0.0249
@<TRIPOS>BOND
     1     7     2    1
     2     4     3    2
     3     1     2    1
     4     1     6    1
     5     2     3    1
     6     2     5    1
     7     8     5    1
     8     5    10    1
     9     5     9    1
