@<TRIPOS>MOLECULE
*****
 24 23 0 0 0
SMALL
GASTEIGER

@<TRIPOS>ATOM
      1  N         -0.6750   -1.2420   -0.5000 N.3     2  ARG2       -0.2453
      2  CA        -0.0080    0.0570   -0.4960 C.3     2  ARG2        0.0878
      3  C          1.4940   -0.1070   -0.4840 C.2     2  ARG2        0.2177
      4  O          2.0300   -1.2270   -0.5020 O.2     2  ARG2       -0.2872
      5  CB        -0.4990    0.8700    0.7350 C.3     2  ARG2       -0.0261
      6  CG        -1.9890    1.3110    0.6940 C.3     2  ARG2       -0.0204
      7  CD        -2.3970    2.0880    1.9560 C.3     2  ARG2        0.0646
      8  NE        -3.8390    2.4630    1.8710 N.pl3   2  ARG2       -0.2787
      9  CZ        -4.5310    3.0800    2.8250 C.cat   2  ARG2        0.3410
     10  NH1       -4.0190    3.4430    3.9670 N.pl3   2  ARG2       -0.2919
     11  NH2       -5.7830    3.3350    2.6100 N.pl3   2  ARG2       -0.2919
     12  H         -0.9060   -1.6930    0.3740 H       2  ARG2        0.1414
     13  HA        -0.2790    0.5830   -1.4310 H       2  ARG2        0.0557
     14 2HB         0.1570    1.7560    0.8620 H       2  ARG2        0.0286
     15 3HB        -0.3330    0.2730    1.6540 H       2  ARG2        0.0286
     16 2HG        -2.6310    0.4150    0.5650 H       2  ARG2        0.0296
     17 3HG        -2.1750    1.9420   -0.2000 H       2  ARG2        0.0296
     18 2HD        -1.7570    2.9930    2.0540 H       2  ARG2        0.0655
     19 3HD        -2.2010    1.4650    2.8550 H       2  ARG2        0.0655
     20  HE        -4.3910    2.2500    1.0340 H       2  ARG2        0.2578
     21 1HH1       -3.0280    3.2130    4.0730 H       2  ARG2        0.2545
     22 2HH1       -4.6180    3.9120    4.6490 H       2  ARG2        0.2545
     23 1HH2       -6.1660    3.0440    1.7080 H       2  ARG2        0.2545
     24 2HH2       -6.2970    3.8080    3.3550 H       2  ARG2        0.2545
@<TRIPOS>UNITY_ATOM_ATTR
10 1
charge 1
@<TRIPOS>BOND
     1    13     2    1
     2     4     3    2
     3     1     2    1
     4     1    12    1
     5     2     3    1
     6     2     5    1
     7    17     6    1
     8    16     6    1
     9     6     5    1
    10     6     7    1
    11     5    14    1
    12     5    15    1
    13    20     8    1
    14    23    11    1
    15     8     7    1
    16     8     9    1
    17     7    18    1
    18     7    19    1
    19    11     9    2
    20    11    24    1
    21     9    10    1
    22    10    21    1
    23    10    22    1
