@<TRIPOS>MOLECULE
*****
 14 13 0 0 0
SMALL
GASTEIGER

@<TRIPOS>ATOM
      1  N         -0.6740   -1.2460   -0.5040 N.3     2  ASN2       -0.2448
      2  CA        -0.0120    0.0550   -0.4960 C.3     2  ASN2        0.0959
      3  C          1.4900   -0.1040   -0.4800 C.2     2  ASN2        0.2182
      4  O          2.0300   -1.2270   -0.5020 O.2     2  ASN2       -0.2872
      5  CB        -0.4920    0.8740    0.7360 C.3     2  ASN2        0.0477
      6  CG        -0.1030    2.3560    0.7780 C.2     2  ASN2        0.2124
      7  ND2       -0.0190    2.9530    1.9360 N.am    2  ASN2       -0.3293
      8  OD1        0.1520    2.9910   -0.2350 O.2     2  ASN2       -0.2760
      9  H         -0.9040   -1.7010    0.3680 H       2  ASN2        0.1414
     10  HA        -0.2740    0.5870   -1.4290 H       2  ASN2        0.0562
     11 2HB        -0.1480    0.4000    1.6730 H       2  ASN2        0.0378
     12 3HB        -1.5970    0.8340    0.7990 H       2  ASN2        0.0378
     13 1HD2        0.3930    3.8870    1.8650 H       2  ASN2        0.1449
     14 2HD2       -0.1490    2.3730    2.7650 H       2  ASN2        0.1449
@<TRIPOS>BOND
     1    10     2    1
     2     1     2    1
     3     1     9    1
     4     4     3    2
     5     2     3    1
     6     2     5    1
     7     8     6    2
     8     5     6    1
     9     5    12    1
    10     5    11    1
    11     6     7   am
    12    13     7    1
    13     7    14    1
