@<TRIPOS>MOLECULE
*****
 12 11 0 0 0
SMALL
GASTEIGER

@<TRIPOS>ATOM
      1  N         -0.6730   -1.2510   -0.5120 N.3     2  ASP2       -0.2449
      2  CA        -0.0130    0.0510   -0.4870 C.3     2  ASP2        0.0935
      3  C          1.4890   -0.1030   -0.4820 C.2     2  ASP2        0.2181
      4  O          2.0300   -1.2270   -0.5020 O.2     2  ASP2       -0.2872
      5  CB        -0.4910    0.8830    0.7360 C.3     2  ASP2        0.0200
      6  CG        -1.9480    1.3640    0.6790 C.2     2  ASP2        0.0890
      7  OD1       -2.8680    0.5200    0.6970 O.co2   2  ASP2       -0.3089
      8  OD2       -2.1690    2.5880    0.5700 O.co2   2  ASP2       -0.8475
      9  H         -0.9030   -1.7170    0.3550 H       2  ASP2        0.1414
     10  HA        -0.2840    0.5930   -1.4130 H       2  ASP2        0.0561
     11 2HB         0.1530    1.7720    0.8620 H       2  ASP2        0.0353
     12 3HB        -0.3850    0.3040    1.6680 H       2  ASP2        0.0353
@<TRIPOS>UNITY_ATOM_ATTR
8 1
charge -1
@<TRIPOS>BOND
     1    10     2    1
     2     1     2    1
     3     1     9    1
     4     4     3    2
     5     2     3    1
     6     2     5    1
     7     8     6   ar
     8     6     7   ar
     9     6     5    1
    10     5    11    1
    11     5    12    1
