@<TRIPOS>MOLECULE
*****
 11 10 0 0 0
SMALL
GASTEIGER

@<TRIPOS>ATOM
      1  N         -0.6760   -1.2360   -0.4970 N.3     2  CYS2       -0.2445
      2  CA        -0.0040    0.0600   -0.4880 C.3     2  CYS2        0.0963
      3  C          1.4970   -0.1090   -0.4890 C.2     2  CYS2        0.2185
      4  O          2.0300   -1.2270   -0.5020 O.2     2  CYS2       -0.2872
      5  CB        -0.5050    0.8630    0.7280 C.3     2  CYS2        0.0147
      6  SG         0.2320    2.5130    0.7540 S.3     2  CYS2       -0.1762
      7  H         -0.9090   -1.6900    0.3750 H       2  CYS2        0.1414
      8  HA        -0.2750    0.5980   -1.4150 H       2  CYS2        0.0565
      9 2HB        -0.2740    0.3440    1.6810 H       2  CYS2        0.0394
     10 3HB        -1.6030    0.9830    0.7040 H       2  CYS2        0.0394
     11  HG         1.0940    2.2880    1.7420 H       2  CYS2        0.1017
@<TRIPOS>BOND
     1     8     2    1
     2     4     3    2
     3     1     2    1
     4     1     7    1
     5     3     2    1
     6     2     5    1
     7    10     5    1
     8     5     6    1
     9     5     9    1
    10     6    11    1
