@<TRIPOS>MOLECULE
*****
 17 16 0 0 0
SMALL
GASTEIGER

@<TRIPOS>ATOM
      1  N         -0.6770   -1.2400   -0.4980 N.3     2  GLN2       -0.2453
      2  CA        -0.0100    0.0580   -0.4970 C.3     2  GLN2        0.0881
      3  C          1.4920   -0.1030   -0.4800 C.2     2  GLN2        0.2177
      4  O          2.0300   -1.2270   -0.5020 O.2     2  GLN2       -0.2872
      5  CB        -0.4930    0.8640    0.7300 C.3     2  GLN2       -0.0207
      6  CG         0.0530    2.3240    0.8560 C.3     2  GLN2        0.0256
      7  CD        -0.3740    3.1790    2.0560 C.2     2  GLN2        0.2105
      8  NE2       -1.2680    4.1220    1.9030 N.am    2  GLN2       -0.3293
      9  OE1        0.0910    2.9810    3.1690 O.2     2  GLN2       -0.2760
     10  H         -0.9070   -1.6890    0.3770 H       2  GLN2        0.1414
     11  HA        -0.2780    0.5960   -1.4260 H       2  GLN2        0.0557
     12 2HB        -0.2290    0.2990    1.6490 H       2  GLN2        0.0289
     13 3HB        -1.6000    0.9010    0.7190 H       2  GLN2        0.0289
     14 2HG        -0.1820    2.8980   -0.0590 H       2  GLN2        0.0359
     15 3HG         1.1570    2.3190    0.9010 H       2  GLN2        0.0359
     16 1HE2       -1.5420    4.6000    2.7630 H       2  GLN2        0.1449
     17 2HE2       -1.6670    4.1900    0.9650 H       2  GLN2        0.1449
@<TRIPOS>BOND
     1    11     2    1
     2     4     3    2
     3     1     2    1
     4     1    10    1
     5     2     3    1
     6     2     5    1
     7    14     6    1
     8    13     5    1
     9     5     6    1
    10     5    12    1
    11     6    15    1
    12     6     7    1
    13    17     8    1
    14     8     7   am
    15     8    16    1
    16     7     9    2
