@<TRIPOS>MOLECULE
*****
 15 14 0 0 0
SMALL
GASTEIGER

@<TRIPOS>ATOM
      1  N         -0.6740   -1.2480   -0.5060 N.3     2  GLU2       -0.2453
      2  CA        -0.0130    0.0540   -0.4970 C.3     2  GLU2        0.0880
      3  C          1.4880   -0.1020   -0.4780 C.2     2  GLU2        0.2177
      4  O          2.0300   -1.2270   -0.5020 O.2     2  GLU2       -0.2872
      5  CB        -0.4890    0.8760    0.7350 C.3     2  GLU2       -0.0231
      6  CG        -0.0030    2.3600    0.7890 C.3     2  GLU2       -0.0021
      7  CD        -0.4340    3.3010   -0.3210 C.2     2  GLU2        0.0871
      8  OE1       -1.6350    3.4180   -0.6310 O.co2   2  GLU2       -0.3090
      9  OE2        0.4720    3.9500   -0.8850 O.co2   2  GLU2       -0.8476
     10  H         -0.9030   -1.7040    0.3660 H       2  GLU2        0.1414
     11  HA        -0.2870    0.5960   -1.4200 H       2  GLU2        0.0557
     12 2HB        -0.1710    0.3690    1.6690 H       2  GLU2        0.0289
     13 3HB        -1.5950    0.8730    0.7860 H       2  GLU2        0.0289
     14 2HG         1.0970    2.4190    0.8330 H       2  GLU2        0.0333
     15 3HG        -0.3640    2.8670    1.6990 H       2  GLU2        0.0333
@<TRIPOS>UNITY_ATOM_ATTR
9 1
charge -1
@<TRIPOS>BOND
     1    11     2    1
     2     9     7   ar
     3     8     7   ar
     4     1     2    1
     5     1    10    1
     6     4     3    2
     7     2     3    1
     8     2     5    1
     9     7     6    1
    10     5    13    1
    11     5     6    1
    12     5    12    1
    13     6    14    1
    14     6    15    1
