@<TRIPOS>MOLECULE
*****
 7 6 0 0 0
SMALL
GASTEIGER

@<TRIPOS>ATOM
      1  N         -0.6740   -1.2480   -0.5060 N.3     2  GLY2       -0.2486
      2  CA        -0.0130    0.0540   -0.4970 C.3     2  GLY2        0.0766
      3  C          1.4880   -0.1020   -0.4780 C.2     2  GLY2        0.2144
      4  O          2.0300   -1.2270   -0.5020 O.2     2  GLY2       -0.2875
      5  H         -0.9030   -1.7040    0.3660 H       2  GLY2        0.1410
      6 3HA        -0.3190    0.5730    0.3630 H       2  GLY2        0.0521
      7  HA        -0.2860    0.6020   -1.4180 H       2  GLY2        0.0521
@<TRIPOS>BOND
     1     7     2    1
     2     1     2    1
     3     1     5    1
     4     4     3    2
     5     2     3    1
     6     2     6    1
