@<TRIPOS>MOLECULE
*****
 17 17 0 0 0
SMALL
GASTEIGER

@<TRIPOS>ATOM
      1  N         -0.6750   -1.2480   -0.5060 N.3     2  HIS2       -0.2449
      2  CA        -0.0130    0.0530   -0.4970 C.3     2  HIS2        0.0931
      3  C          1.4890   -0.1020   -0.4780 C.2     2  HIS2        0.2181
      4  O          2.0300   -1.2270   -0.5020 O.2     2  HIS2       -0.2872
      5  CB        -0.4930    0.7730    0.7740 C.3     2  HIS2        0.0150
      6  CG         0.0820    2.1540    0.8990 C.ar    2  HIS2        0.0608
      7  CD2        1.0500    2.4820    1.8380 C.ar    2  HIS2        0.0243
      8  ND1       -0.2640    3.2550    0.1190 N.ar    2  HIS2       -0.2408
      9  CE1        0.5400    4.1870    0.6650 C.ar    2  HIS2        0.0936
     10  NE2        1.3540    3.8100    1.6880 N.ar    2  HIS2       -0.3506
     11  H         -0.9040   -1.7040    0.3660 H       2  HIS2        0.1414
     12  HA        -0.2660    0.5630   -1.4410 H       2  HIS2        0.0561
     13 2HB        -0.2160    0.2060    1.6850 H       2  HIS2        0.0349
     14 3HB        -1.5990    0.8650    0.8110 H       2  HIS2        0.0349
     15 2HD         1.4740    1.7840    2.5540 H       2  HIS2        0.0825
     16 1HE         0.4970    5.1880    0.2560 H       2  HIS2        0.1027
     17 2HE         2.0290    4.3760    2.2230 H       2  HIS2        0.1662
@<TRIPOS>BOND
     1    12     2    1
     2     1     2    1
     3     1    11    1
     4     4     3    2
     5     2     3    1
     6     2     5    1
     7     8     9   ar
     8     8     6   ar
     9    16     9    1
    10     9    10   ar
    11     5    14    1
    12     5     6    1
    13     5    13    1
    14     6     7   ar
    15    10     7   ar
    16    10    17    1
    17     7    15    1
