@<TRIPOS>MOLECULE
*****
 19 18 0 0 0
SMALL
GASTEIGER

@<TRIPOS>ATOM
      1  N         -0.6620   -1.2770   -0.5480 N.3     2  ILE2       -0.2450
      2  CA        -0.0140    0.0280   -0.4650 C.3     2  ILE2        0.0902
      3  C          1.4890   -0.1110   -0.4970 C.2     2  ILE2        0.2180
      4  O          2.0300   -1.2270   -0.5020 O.2     2  ILE2       -0.2872
      5  CB        -0.5040    0.8360    0.8040 C.3     2  ILE2       -0.0201
      6  CG1       -0.0960    2.3440    0.8150 C.3     2  ILE2       -0.0514
      7  CG2       -0.0330    0.1970    2.1470 C.3     2  ILE2       -0.0606
      8  CD1       -0.7500    3.2260   -0.2680 C.3     2  ILE2       -0.0650
      9  H         -0.8920   -1.7810    0.2960 H       2  ILE2        0.1414
     10  HA        -0.2950    0.5990   -1.3700 H       2  ILE2        0.0560
     11  HB        -1.6140    0.8060    0.7910 H       2  ILE2        0.0318
     12 2HG1        0.9960    2.4340    0.6590 H       2  ILE2        0.0266
     13 3HG1       -0.2680    2.7810    1.8180 H       2  ILE2        0.0266
     14 1HG2       -0.3820   -0.8420    2.2810 H       2  ILE2        0.0233
     15 2HG2        1.0700    0.1870    2.2400 H       2  ILE2        0.0233
     16 3HG2       -0.4260    0.7330    3.0300 H       2  ILE2        0.0233
     17 1HD1       -0.5590    2.8360   -1.2860 H       2  ILE2        0.0230
     18 2HD1       -1.8450    3.3060   -0.1450 H       2  ILE2        0.0230
     19 3HD1       -0.3530    4.2580   -0.2370 H       2  ILE2        0.0230
@<TRIPOS>BOND
     1    10     2    1
     2    17     8    1
     3     1     2    1
     4     1     9    1
     5     4     3    2
     6     3     2    1
     7     2     5    1
     8     8    19    1
     9     8    18    1
    10     8     6    1
    11    12     6    1
    12    11     5    1
    13     5     6    1
    14     5     7    1
    15     6    13    1
    16     7    15    1
    17     7    14    1
    18     7    16    1
