@<TRIPOS>MOLECULE
*****
 19 18 0 0 0
SMALL
GASTEIGER

@<TRIPOS>ATOM
      1  N         -0.6660   -1.2710   -0.5380 N.3     2  LEU2       -0.2453
      2  CA        -0.0190    0.0360   -0.4710 C.3     2  LEU2        0.0879
      3  C          1.4840   -0.1040   -0.4860 C.2     2  LEU2        0.2177
      4  O          2.0300   -1.2270   -0.5020 O.2     2  LEU2       -0.2872
      5  CB        -0.4910    0.8150    0.7890 C.3     2  LEU2       -0.0266
      6  CG        -1.9860    1.2260    0.8770 C.3     2  LEU2       -0.0449
      7  CD1       -2.2810    1.8590    2.2440 C.3     2  LEU2       -0.0626
      8  CD2       -2.4030    2.1940   -0.2430 C.3     2  LEU2       -0.0626
      9  H         -0.8950   -1.7650    0.3120 H       2  LEU2        0.1414
     10  HA        -0.2860    0.6050   -1.3790 H       2  LEU2        0.0557
     11 2HB         0.1260    1.7300    0.8880 H       2  LEU2        0.0287
     12 3HB        -0.2460    0.2170    1.6890 H       2  LEU2        0.0287
     13  HG        -2.6020    0.3060    0.7870 H       2  LEU2        0.0296
     14 1HD1       -2.0330    1.1730    3.0770 H       2  LEU2        0.0232
     15 2HD1       -1.7070    2.7900    2.4070 H       2  LEU2        0.0232
     16 3HD1       -3.3520    2.1110    2.3530 H       2  LEU2        0.0232
     17 1HD2       -1.7770    3.1050   -0.2640 H       2  LEU2        0.0232
     18 2HD2       -2.3220    1.7160   -1.2370 H       2  LEU2        0.0232
     19 3HD2       -3.4570    2.5130   -0.1430 H       2  LEU2        0.0232
@<TRIPOS>BOND
     1    10     2    1
     2    18     8    1
     3     1     2    1
     4     1     9    1
     5     4     3    2
     6     3     2    1
     7     2     5    1
     8    17     8    1
     9     8    19    1
    10     8     6    1
    11    13     6    1
    12     5     6    1
    13     5    11    1
    14     5    12    1
    15     6     7    1
    16     7    16    1
    17     7    15    1
    18     7    14    1
