@<TRIPOS>MOLECULE
*****
 22 21 0 0 0
SMALL
GASTEIGER

@<TRIPOS>ATOM
      1  N         -0.6680   -1.2650   -0.5300 N.3     2  LYS2       -0.2453
      2  CA        -0.0160    0.0400   -0.4770 C.3     2  LYS2        0.0877
      3  C          1.4870   -0.1050   -0.4860 C.2     2  LYS2        0.2177
      4  O          2.0300   -1.2270   -0.5020 O.2     2  LYS2       -0.2872
      5  CB        -0.4940    0.8060    0.7870 C.3     2  LYS2       -0.0288
      6  CG         0.0900    2.2360    0.8980 C.3     2  LYS2       -0.0464
      7  CD        -0.4130    3.0460    2.0970 C.3     2  LYS2       -0.0126
      8  CE         0.2530    4.4280    2.0890 C.3     2  LYS2       -0.0354
      9  NZ        -0.2310    5.2120    3.2390 N.4     2  LYS2        0.2185
     10  H         -0.8970   -1.7500    0.3260 H       2  LYS2        0.1414
     11  HA        -0.3010    0.6090   -1.3820 H       2  LYS2        0.0557
     12 2HB        -0.2370    0.2220    1.6950 H       2  LYS2        0.0285
     13 3HB        -1.6000    0.8650    0.7910 H       2  LYS2        0.0285
     14 2HG        -0.1040    2.7910   -0.0400 H       2  LYS2        0.0268
     15 3HG         1.1910    2.1930    0.9920 H       2  LYS2        0.0268
     16 2HD        -0.1740    2.5110    3.0390 H       2  LYS2        0.0317
     17 3HD        -1.5170    3.1280    2.0560 H       2  LYS2        0.0317
     18 2HE         0.0310    4.9740    1.1480 H       2  LYS2        0.0813
     19 3HE         1.3580    4.3270    2.1260 H       2  LYS2        0.0813
     20 1HZ        -0.3590    4.6080    4.0600 H       2  LYS2        0.1994
     21 2HZ         0.4490    5.9280    3.5150 H       2  LYS2        0.1994
     22 3HZ        -1.1010    5.6350    2.9490 H       2  LYS2        0.1994
@<TRIPOS>UNITY_ATOM_ATTR
9 1
charge 1
@<TRIPOS>BOND
     1    11     2    1
     2     1     2    1
     3     1    10    1
     4     4     3    2
     5     3     2    1
     6     2     5    1
     7    14     6    1
     8     5    13    1
     9     5     6    1
    10     5    12    1
    11     6    15    1
    12     6     7    1
    13    18     8    1
    14    17     7    1
    15     8     7    1
    16     8    19    1
    17     8     9    1
    18     7    16    1
    19    22     9    1
    20     9    21    1
    21     9    20    1
