@<TRIPOS>MOLECULE
*****
 17 16 0 0 0
SMALL
GASTEIGER

@<TRIPOS>ATOM
      1  N         -0.6680   -1.2670   -0.5330 N.3     2  MET2       -0.2453
      2  CA        -0.0170    0.0390   -0.4750 C.3     2  MET2        0.0884
      3  C          1.4860   -0.1040   -0.4850 C.2     2  MET2        0.2177
      4  O          2.0300   -1.2270   -0.5020 O.2     2  MET2       -0.2872
      5  CB        -0.4920    0.8090    0.7870 C.3     2  MET2       -0.0199
      6  CG        -1.9750    1.2400    0.7960 C.3     2  MET2       -0.0047
      7  SD        -2.3530    2.0940    2.3350 S.3     2  MET2       -0.1641
      8  CE        -4.1070    2.3780    2.0580 C.3     2  MET2       -0.0181
      9  H         -0.8970   -1.7550    0.3210 H       2  MET2        0.1414
     10  HA        -0.2950    0.6110   -1.3790 H       2  MET2        0.0557
     11 2HB         0.1230    1.7200    0.9130 H       2  MET2        0.0293
     12 3HB        -0.2920    0.2040    1.6950 H       2  MET2        0.0293
     13 2HG        -2.6280    0.3520    0.7000 H       2  MET2        0.0377
     14 3HG        -2.2110    1.9020   -0.0560 H       2  MET2        0.0377
     15 1HE        -4.2740    2.9270    1.1140 H       2  MET2        0.0340
     16 2HE        -4.6480    1.4170    2.0020 H       2  MET2        0.0340
     17 3HE        -4.5380    2.9680    2.8840 H       2  MET2        0.0340
@<TRIPOS>BOND
     1    10     2    1
     2     1     2    1
     3     1     9    1
     4     4     3    2
     5     3     2    1
     6     2     5    1
     7    14     6    1
     8    13     6    1
     9     5     6    1
    10     5    11    1
    11     5    12    1
    12     6     7    1
    13    15     8    1
    14    16     8    1
    15     8     7    1
    16     8    17    1
