@<TRIPOS>MOLECULE
*****
 20 20 0 0 0
SMALL
GASTEIGER

@<TRIPOS>ATOM
      1  N         -0.6680   -1.2730   -0.5340 N.3     2  PHE2       -0.2450
      2  CA        -0.0260    0.0370   -0.4890 C.3     2  PHE2        0.0916
      3  C          1.4780   -0.0970   -0.4720 C.2     2  PHE2        0.2180
      4  O          2.0300   -1.2270   -0.5020 O.2     2  PHE2       -0.2872
      5  CB        -0.4760    0.8090    0.7890 C.3     2  PHE2       -0.0036
      6  CG        -1.9540    1.2280    0.8500 C.ar    2  PHE2       -0.0454
      7  CD1       -2.8670    0.4390    1.5590 C.ar    2  PHE2       -0.0585
      8  CD2       -2.4080    2.3520    0.1550 C.ar    2  PHE2       -0.0585
      9  CE1       -4.2200    0.7600    1.5570 C.ar    2  PHE2       -0.0615
     10  CE2       -3.7620    2.6780    0.1630 C.ar    2  PHE2       -0.0615
     11  CZ        -4.6670    1.8800    0.8610 C.ar    2  PHE2       -0.0617
     12  H         -0.8940   -1.7550    0.3240 H       2  PHE2        0.1414
     13  HA        -0.3090    0.6070   -1.3940 H       2  PHE2        0.0560
     14 2HB         0.1490    1.7160    0.9100 H       2  PHE2        0.0333
     15 3HB        -0.2370    0.2090    1.6900 H       2  PHE2        0.0333
     16 1HD        -2.5310   -0.4500    2.0760 H       2  PHE2        0.0620
     17 2HD        -1.7150    2.9620   -0.4060 H       2  PHE2        0.0620
     18 1HE        -4.9200    0.1270    2.0820 H       2  PHE2        0.0618
     19 2HE        -4.1100    3.5430   -0.3820 H       2  PHE2        0.0618
     20  HZ        -5.7190    2.1240    0.8570 H       2  PHE2        0.0618
@<TRIPOS>BOND
     1    13     2    1
     2     1     2    1
     3     1    12    1
     4     4     3    2
     5     2     3    1
     6     2     5    1
     7    17     8    1
     8    19    10    1
     9     8    10   ar
    10     8     6   ar
    11    10    11   ar
    12     5     6    1
    13     5    14    1
    14     5    15    1
    15     6     7   ar
    16    20    11    1
    17    11     9   ar
    18     9     7   ar
    19     9    18    1
    20     7    16    1
