@<TRIPOS>MOLECULE
*****
 14 14 0 0 0
SMALL
GASTEIGER

@<TRIPOS>ATOM
      1  N         -0.6870   -1.2180   -0.4730 N.3     2  PRO2       -0.2290
      2  CA        -0.0000    0.0650   -0.5040 C.3     2  PRO2        0.0909
      3  C          1.5280   -0.1110   -0.4980 C.2     2  PRO2        0.2180
      4  O          2.0300   -1.2270   -0.5020 O.2     2  PRO2       -0.2872
      5  CB        -0.5320    0.7400    0.7690 C.3     2  PRO2       -0.0275
      6  CG        -0.8840   -0.4420    1.6860 C.3     2  PRO2       -0.0370
      7  CD        -1.3790   -1.5110    0.7080 C.3     2  PRO2        0.0148
      8  HA        -0.2850    0.6310   -1.3940 H       2  PRO2        0.0560
      9 2HB        -1.4440    1.2890    0.5250 H       2  PRO2        0.0285
     10 3HB         0.1890    1.4260    1.2200 H       2  PRO2        0.0285
     11 2HG        -1.6390   -0.1830    2.4320 H       2  PRO2        0.0279
     12 3HG         0.0180   -0.7970    2.1870 H       2  PRO2        0.0279
     13 2HD        -2.4470   -1.3950    0.5090 H       2  PRO2        0.0441
     14 3HD        -1.1680   -2.5230    1.0620 H       2  PRO2        0.0441
@<TRIPOS>BOND
     1     8     2    1
     2     2     3    1
     3     2     1    1
     4     2     5    1
     5     4     3    2
     6     1     7    1
     7    13     7    1
     8     9     5    1
     9     7    14    1
    10     7     6    1
    11     5    10    1
    12     5     6    1
    13     6    12    1
    14     6    11    1
