@<TRIPOS>MOLECULE
*****
 11 10 0 0 0
SMALL
GASTEIGER

@<TRIPOS>ATOM
      1  N         -0.6660   -1.2700   -0.5390 N.3     2  SER2       -0.2430
      2  CA        -0.0180    0.0360   -0.4630 C.3     2  SER2        0.1106
      3  C          1.4860   -0.1050   -0.4900 C.2     2  SER2        0.2200
      4  O          2.0300   -1.2270   -0.5020 O.2     2  SER2       -0.2871
      5  CB        -0.4950    0.8160    0.7870 C.3     2  SER2        0.0681
      6  OG        -1.8920    1.1270    0.7500 O.3     2  SER2       -0.3930
      7  H         -0.8950   -1.7700    0.3080 H       2  SER2        0.1414
      8  HA        -0.3020    0.6100   -1.3640 H       2  SER2        0.0580
      9 2HB         0.0870    1.7470    0.9230 H       2  SER2        0.0577
     10 3HB        -0.2950    0.2190    1.6980 H       2  SER2        0.0577
     11  HG        -2.0380    1.7050   -0.0030 H       2  SER2        0.2095
@<TRIPOS>BOND
     1     8     2    1
     2     1     2    1
     3     1     7    1
     4     4     3    2
     5     3     2    1
     6     2     5    1
     7    11     6    1
     8     6     5    1
     9     5     9    1
    10     5    10    1
