@<TRIPOS>MOLECULE
*****
 14 13 0 0 0
SMALL
GASTEIGER

@<TRIPOS>ATOM
      1  N         -0.6650   -1.2730   -0.5390 N.3     2  THR2       -0.2427
      2  CA        -0.0190    0.0340   -0.4750 C.3     2  THR2        0.1131
      3  C          1.4850   -0.1040   -0.4860 C.2     2  THR2        0.2203
      4  O          2.0300   -1.2270   -0.5020 O.2     2  THR2       -0.2871
      5  CB        -0.4930    0.8200    0.7940 C.3     2  THR2        0.0763
      6  CG2        0.1000    2.2330    0.9850 C.3     2  THR2       -0.0370
      7  OG1       -1.8990    1.0260    0.7580 O.3     2  THR2       -0.3900
      8  H         -0.8930   -1.7660    0.3120 H       2  THR2        0.1415
      9  HA        -0.3040    0.6080   -1.3750 H       2  THR2        0.0583
     10  HB        -0.2470    0.2130    1.6930 H       2  THR2        0.0611
     11 1HG        -2.1290    1.4450    1.5910 H       2  THR2        0.2098
     12 1HG2       -0.2980    2.7330    1.8880 H       2  THR2        0.0255
     13 2HG2        1.1980    2.2170    1.1110 H       2  THR2        0.0255
     14 3HG2       -0.1200    2.8900    0.1230 H       2  THR2        0.0255
@<TRIPOS>BOND
     1     9     2    1
     2     1     2    1
     3     1     8    1
     4     4     3    2
     5     3     2    1
     6     2     5    1
     7    14     6    1
     8     7     5    1
     9     7    11    1
    10     5     6    1
    11     5    10    1
    12     6    13    1
    13     6    12    1
