@<TRIPOS>MOLECULE
*****
 24 25 0 0 0
SMALL
GASTEIGER

@<TRIPOS>ATOM
      1  N         -0.6690   -1.2660   -0.5270 N.3     2  TRP2       -0.2450
      2  CA        -0.0210    0.0410   -0.4880 C.3     2  TRP2        0.0917
      3  C          1.4830   -0.1000   -0.4770 C.2     2  TRP2        0.2180
      4  O          2.0300   -1.2270   -0.5020 O.2     2  TRP2       -0.2872
      5  CB        -0.4860    0.8010    0.7860 C.3     2  TRP2       -0.0017
      6  CG        -1.9470    1.2610    0.7600 C.ar    2  TRP2       -0.0204
      7  CD1       -2.4060    2.5160    0.3120 C.ar    2  TRP2        0.0060
      8  CD2       -3.0590    0.6010    1.2400 C.ar    2  TRP2        0.0029
      9  CE2       -4.1770    1.4560    1.0750 C.ar    2  TRP2        0.0467
     10  CE3       -3.2090   -0.6760    1.8410 C.ar    2  TRP2       -0.0523
     11  NE1       -3.7950    2.6570    0.4960 N.ar    2  TRP2       -0.3604
     12  CZ2       -5.4560    1.0360    1.4990 C.ar    2  TRP2       -0.0378
     13  CZ3       -4.4840   -1.0710    2.2450 C.ar    2  TRP2       -0.0611
     14  CH2       -5.5930   -0.2300    2.0750 C.ar    2  TRP2       -0.0598
     15  H         -0.8960   -1.7430    0.3340 H       2  TRP2        0.1414
     16  HA        -0.2960    0.6100   -1.3960 H       2  TRP2        0.0560
     17 2HB         0.1430    1.6980    0.9470 H       2  TRP2        0.0334
     18 3HB        -0.3120    0.1790    1.6860 H       2  TRP2        0.0334
     19 1HD        -1.7590    3.2910   -0.0790 H       2  TRP2        0.0810
     20 1HE        -4.3830    3.4740    0.2970 H       2  TRP2        0.1653
     21 3HE        -2.3590   -1.3280    1.9830 H       2  TRP2        0.0624
     22 2HZ        -6.3110    1.6840    1.3760 H       2  TRP2        0.0638
     23 3HZ        -4.6170   -2.0440    2.6970 H       2  TRP2        0.0618
     24 2HH        -6.5680   -0.5650    2.3940 H       2  TRP2        0.0618
@<TRIPOS>BOND
     1    16     2    1
     2     1     2    1
     3     1    15    1
     4     4     3    2
     5     2     3    1
     6     2     5    1
     7    19     7    1
     8    20    11    1
     9     7    11   ar
    10     7     6   ar
    11    11     9   ar
    12     6     5    1
    13     6     8   ar
    14     5    17    1
    15     5    18    1
    16     9     8   ar
    17     9    12   ar
    18     8    10   ar
    19    22    12    1
    20    12    14   ar
    21    10    21    1
    22    10    13   ar
    23    14    13   ar
    24    14    24    1
    25    13    23    1
