@<TRIPOS>MOLECULE
*****
 21 21 0 0 0
SMALL
GASTEIGER

@<TRIPOS>ATOM
      1  N         -0.6670   -1.2790   -0.5390 N.3     2  TYR2       -0.2450
      2  CA        -0.0310    0.0350   -0.4880 C.3     2  TYR2        0.0916
      3  C          1.4730   -0.0930   -0.4660 C.2     2  TYR2        0.2180
      4  O          2.0300   -1.2270   -0.5020 O.2     2  TYR2       -0.2872
      5  CB        -0.4660    0.8130    0.7870 C.3     2  TYR2       -0.0036
      6  CG        -1.9440    1.2140    0.8790 C.ar    2  TYR2       -0.0452
      7  CD1       -2.8480    0.4390    1.6120 C.ar    2  TYR2       -0.0551
      8  CD2       -2.3910    2.3700    0.2330 C.ar    2  TYR2       -0.0551
      9  CE1       -4.1840    0.8220    1.7000 C.ar    2  TYR2       -0.0199
     10  CE2       -3.7270    2.7500    0.3220 C.ar    2  TYR2       -0.0199
     11  CZ        -4.6220    1.9750    1.0560 C.ar    2  TYR2        0.1169
     12  OH        -5.9330    2.3480    1.1470 O.3     2  TYR2       -0.5068
     13  H         -0.8900   -1.7650    0.3180 H       2  TYR2        0.1414
     14  HA        -0.3110    0.6040   -1.3950 H       2  TYR2        0.0560
     15 2HB         0.1360    1.7380    0.8830 H       2  TYR2        0.0333
     16 3HB        -0.1850    0.2290    1.6880 H       2  TYR2        0.0333
     17 1HD        -2.5150   -0.4550    2.1200 H       2  TYR2        0.0621
     18 2HD        -1.6990    2.9820   -0.3290 H       2  TYR2        0.0621
     19 1HE        -4.8830    0.2280    2.2710 H       2  TYR2        0.0654
     20 2HE        -4.0580    3.6490   -0.1760 H       2  TYR2        0.0654
     21  HH        -6.0540    3.1600    0.6490 H       2  TYR2        0.2921
@<TRIPOS>BOND
     1    14     2    1
     2     1     2    1
     3     1    13    1
     4     4     3    2
     5     2     3    1
     6     2     5    1
     7    18     8    1
     8    20    10    1
     9     8    10   ar
    10     8     6   ar
    11    10    11   ar
    12    21    12    1
    13     5     6    1
    14     5    15    1
    15     5    16    1
    16     6     7   ar
    17    11    12    1
    18    11     9   ar
    19     7     9   ar
    20     7    17    1
    21     9    19    1
